/*--------------------------------*- C++ -*----------------------------------*\
| =========                 |                                                 |
| \\      /  F ield         | foam-extend: Open Source CFD                    |
|  \\    /   O peration     | Version:     4.0                               |
|   \\  /    A nd           | Web:         http://www.foam-extend.org         |
|    \\/     M anipulation  |                                                 |
\*---------------------------------------------------------------------------*/
FoamFile
{
    version     2.0;
    format      ascii;
    class       volScalarField;
    object      C_mAE;
}
// * * * * * * * * * * * * * * * * * * * * * * * * * * * * * * * * * * * * * //

dimensions      [0 -3 0 0 1 0 0];

internalField   uniform 0;

boundaryField
{
    Left
    {
	    type		fixedValue;
	    value		uniform 0;
    }

    inlet_A
    {
	    type		fixedValue;
	    value		uniform 0.33;
    }

    Right
    {
        type        zeroGradient;
    }

    Front
    {
	    type		zeroGradient;
    }
	
    Back
    {
	    type		zeroGradient;
    }
	
    Top
    {
	    type		zeroGradient;
    }

    Bottom
    {
	    type		zeroGradient;
    }

    Grainwalls
    {
	    type		zeroGradient;
    }
	
	
}

// ************************************************************************* //
