/*--------------------------------*- C++ -*----------------------------------*\
  =========                 |
  \\      /  F ield         | OpenFOAM: The Open Source CFD Toolbox
   \\    /   O peration     | Website:  https://openfoam.org
    \\  /    A nd           | Version:  8
     \\/     M anipulation  |
\*---------------------------------------------------------------------------*/
FoamFile
{
    version     2.0;
    format      ascii;
    class       dictionary;
    location    "constant";
    object      transportProperties;
}
// * * * * * * * * * * * * * * * * * * * * * * * * * * * * * * * * * * * * * //

transportModel  Newtonian;

rho             rho [1 -3 0 0 0 0 0] 1000;

nu              nu  [0 2 -1 0 0 0 0] 1e-05;

D_glu D_glu [ 0 2 -1 0 0 0 0 ] (2.8935e-8 0 0 0 2.8935e-8 0 0 0 2.8935e-8);
D_DOM D_DOM [ 0 2 -1 0 0 0 0 ] (2.8935e-8 0 0 0 2.8935e-8 0 0 0 2.8935e-8);
D_O2 D_O2 [ 0 2 -1 0 0 0 0 ] (2.8935e-8 0 0 0 2.8935e-8 0 0 0 2.8935e-8);
D_CO2 D_CO2 [ 0 2 -1 0 0 0 0 ] (2.8935e-8 0 0 0 2.8935e-8 0 0 0 2.8935e-8);
kD_SOMDOM kD_SOMDOM [ 0 0 0 0 0 0 0 ] 1e-3;


surfaceSpecies
{
	Surf_w;
	Surf_wT;
};

surfaceMasters
{
    Surf_w;
}

// ************************************************************************* //
