/*--------------------------------*- C++ -*----------------------------------*\
  =========                 |
  \\      /  F ield         | OpenFOAM: The Open Source CFD Toolbox
   \\    /   O peration     | Website:  https://openfoam.org
    \\  /    A nd           | Version:  6
     \\/     M anipulation  |
\*---------------------------------------------------------------------------*/
FoamFile
{
    version     2.0;
    format      binary;
    class       polyBoundaryMesh;
    location    "constant/polyMesh";
    object      boundary;
}
// * * * * * * * * * * * * * * * * * * * * * * * * * * * * * * * * * * * * * //

8
(
    Grainwalls
    {
        type            patch;
        nFaces          212705;
        startFace       1949629;
    }
    Left
    {
        type            patch;
        nFaces          4584;
        startFace       2162334;
    }
    Right
    {
        type            patch;
        nFaces          5053;
        startFace       2166918;
    }
    Bottom
    {
        type            patch;
        nFaces          5534;
        startFace       2171971;
    }
    Top
    {
        type            patch;
        nFaces          4900;
        startFace       2177505;
    }
    Back
    {
        type            patch;
        nFaces          4870;
        startFace       2182405;
    }
    Front
    {
        type            patch;
        nFaces          5778;
        startFace       2187275;
    }
    inlet_A
    {
        type            patch;
        nFaces          438;
        startFace       2193053;
    }
)

// ************************************************************************* //
